         100
 Cu Cu
Cu   -1.573222637    2.327690125   -0.660550117
Cu    1.090024471    2.507006645   -2.224682331
Cu    2.380366802    2.836326122    1.804025173
Cu    0.971370220   -2.250808239   -1.800787449
Cu    0.977179050   -1.962392807   -1.975278378
Cu    3.320332050   -0.230467319    0.183980942
Cu    1.835648537    3.188951969   -3.933287621
Cu    0.071004391   -3.274415970    2.056408405
Cu   -1.101169586    0.378422737    2.664073944
Cu    0.205933094   -3.009335518   -0.570997715
Cu   -0.437151432    2.355368614   -2.698152542
Cu   -2.082530022   -3.304099560    2.156805992
Cu    0.445426941    2.532262325    2.366786480
Cu   -3.186236858   -2.762562752   -3.472201824
Cu    1.689229488   -1.326266766   -1.513456345
Cu   -2.961750031   -0.082620144   -2.915284157
Cu   -3.755588055    3.446849823    1.518305779
Cu   -2.148233891   -2.523343563    3.171338558
Cu    2.048301697    1.231293678    0.499163151
Cu    3.011887550   -2.602869987   -0.605270863
Cu    3.022554398   -0.062790871    0.662512302
Cu   -1.804492474   -3.875100613    3.103379250
Cu    2.475247383   -1.952414036   -2.986817837
Cu    2.895927429   -0.401111126    1.740192413
Cu    2.745910168    2.723066330    0.946986675
Cu   -1.547335148   -2.939896107    0.170202732
Cu   -2.164764881    2.523140907   -2.282174110
Cu   -2.660414696   -0.519542217   -3.833412647
Cu    0.836901188   -0.219885826    3.158377171
Cu   -3.794338226    1.772449970    0.610566616
Cu    0.855637074   -0.287160873    0.553774357
Cu    1.333636284    2.409121990    0.800478935
Cu   -1.516665459   -3.633163929   -3.060864925
Cu   -1.771108627    0.056992054   -1.841755867
Cu   -0.806325436    2.745628357   -3.289851189
Cu   -1.678002357    1.162049770    3.365818501
Cu    1.960024357    1.780417919   -0.619388103
Cu   -2.647441387    1.610129356   -1.485490322
Cu    2.957064629   -1.882275581   -1.565234184
Cu   -1.707924366   -0.996977806    3.929202080
Cu    3.862607956   -1.211893559   -2.920553207
Cu    2.769893646   -2.895584583   -3.301922321
Cu    2.006418228   -3.285353661   -3.234327316
Cu   -2.320836544   -3.938852310   -2.082853317
Cu   -2.261840820   -2.151455879   -2.516006470
Cu   -0.067048073    2.477840900   -3.413140774
Cu   -2.084762573    3.886481285    2.317083836
Cu   -0.814448357    1.566731930    2.495531082
Cu   -2.659213543    3.892776489    1.840698719
Cu   -0.880534172    3.942131042   -1.100153923
Cu    0.387083054    2.202967167    0.109642506
Cu    3.093973637   -1.668937206   -1.925168991
Cu   -1.968152046    2.975016117    3.945874691
Cu    3.012701988    1.487335205    3.015565395
Cu   -3.269577980    1.370169163   -1.263623714
Cu    1.530823231    2.953049660    3.670426369
Cu   -0.987363815    1.123331070    2.641333580
Cu    3.186741829   -1.628959179    2.197744846
Cu   -3.910760880    3.022958755    2.431928635
Cu   -1.568774223    3.150858402    2.993673325
Cu   -1.949098110    1.548415184    1.183779240
Cu   -1.275330067    1.605937958   -3.084085941
Cu   -3.580432892   -2.922588348   -0.159286976
Cu   -3.625505447    3.861052990   -0.384453773
Cu    2.589940548   -2.551970959   -2.546834946
Cu   -0.039526463    0.260347366    0.372108459
Cu   -0.671223164    2.591848373    1.076288700
Cu    3.348465443   -1.500515938    3.471398354
Cu    0.779624939   -0.160603523   -0.517047882
Cu   -1.158483505    1.529611111    2.028075218
Cu   -1.416974068    1.955811501    0.923522472
Cu    1.833199978    1.842861176   -1.431690216
Cu    1.603463650    2.305467606   -2.429145336
Cu    0.008409500    0.690875053    3.911962986
Cu    2.621706963   -3.906644821   -1.303045273
Cu   -0.576548576    1.128719807    3.155432701
Cu   -1.846010685    1.324992657   -3.026515961
Cu    1.302128315   -3.862117290    3.848194599
Cu   -0.665096283    1.162126541   -2.188679218
Cu    2.583562851   -3.957876205    2.429614544
Cu   -0.350286007    3.456740856   -2.839868546
Cu    2.202970505   -0.241184711    1.263637066
Cu   -1.038462162   -3.911021709   -3.170720100
Cu    3.350666046    1.282859325   -3.095573902
Cu   -2.139494419    0.784921646   -1.843130589
Cu   -3.932152748   -2.687106133   -3.166209221
Cu    1.285390377   -3.055156708    3.207742214
Cu    1.225258827   -3.501432896   -2.077831745
Cu   -2.039234638    2.117088318    0.167334557
Cu    1.848495483   -3.783455849   -1.598484993
Cu    1.105841637   -2.811360359    1.384734631
Cu   -0.776530266    3.065606117    1.731712818
Cu    0.181556225    1.332803249   -1.024637699
Cu   -3.437311172    0.626005173   -1.583163738
Cu   -1.144709110   -3.923383236   -3.237240791
Cu    2.219847202   -0.520922661   -2.756444454
Cu   -1.263065815   -3.883850574    3.103204250
Cu    2.306608200   -3.195672989    2.491166592
Cu    0.235277176   -0.431498051   -2.942161560
Cu   -0.846453667    0.919266224    1.669903278
