         147
 icosaedre
  Ag   0.00000   0.00000   0.00000    12
  Ag   2.46014   1.52045   0.00000    12
  Ag   2.46014  -1.52045   0.00000    12
  Ag  -2.46014   1.52045   0.00000    12
  Ag  -2.46014  -1.52045   0.00000    12
  Ag   1.52045   0.00000   2.46014    12
  Ag   1.52045   0.00000  -2.46014    12
  Ag  -1.52045   0.00000   2.46014    12
  Ag  -1.52045   0.00000  -2.46014    12
  Ag   0.00000   2.46014   1.52045    12
  Ag   0.00000   2.46014  -1.52045    12
  Ag   0.00000  -2.46014   1.52045    12
  Ag   0.00000  -2.46014  -1.52045    12
  Ag   4.92028   3.04090   0.00000    12
  Ag   4.92028  -3.04090   0.00000    12
  Ag  -4.92028   3.04090   0.00000    12
  Ag  -4.92028  -3.04090   0.00000    12
  Ag   3.04090   0.00000   4.92028    12
  Ag   3.04090   0.00000  -4.92028    12
  Ag  -3.04090   0.00000   4.92028    12
  Ag  -3.04090   0.00000  -4.92028    12
  Ag   0.00000   4.92028   3.04090    12
  Ag   0.00000   4.92028  -3.04090    12
  Ag   0.00000  -4.92028   3.04090    12
  Ag   0.00000  -4.92028  -3.04090    12
  Ag   4.92028   0.00000   0.00000    12
  Ag   3.98059   1.52045   2.46014    12
  Ag   3.98059  -1.52045   2.46014    12
  Ag   3.98059   1.52045  -2.46014    12
  Ag   3.98059  -1.52045  -2.46014    12
  Ag   2.46014   3.98059   1.52045    12
  Ag   1.52045   2.46014   3.98059    12
  Ag   2.46014   3.98059  -1.52045    12
  Ag   1.52045   2.46014  -3.98059    12
  Ag   0.00000   4.92028   0.00000    12
  Ag   2.46014  -3.98059   1.52045    12
  Ag   1.52045  -2.46014   3.98059    12
  Ag   2.46014  -3.98059  -1.52045    12
  Ag   1.52045  -2.46014  -3.98059    12
  Ag   0.00000  -4.92028   0.00000    12
  Ag  -4.92028   0.00000   0.00000    12
  Ag  -3.98059   1.52045   2.46014    12
  Ag  -3.98059  -1.52045   2.46014    12
  Ag  -3.98059   1.52045  -2.46014    12
  Ag  -3.98059  -1.52045  -2.46014    12
  Ag  -2.46014   3.98059   1.52045    12
  Ag  -1.52045   2.46014   3.98059    12
  Ag  -2.46014   3.98059  -1.52045    12
  Ag  -1.52045   2.46014  -3.98059    12
  Ag  -2.46014  -3.98059   1.52045    12
  Ag  -1.52045  -2.46014   3.98059    12
  Ag  -2.46014  -3.98059  -1.52045    12
  Ag  -1.52045  -2.46014  -3.98059    12
  Ag   0.00000   0.00000   4.92028    12
  Ag   0.00000   0.00000  -4.92028    12
  Ag   7.38042   4.56135   0.00000     6
  Ag   7.38042  -4.56135   0.00000     6
  Ag  -7.38042   4.56135   0.00000     6
  Ag  -7.38042  -4.56135   0.00000     6
  Ag   4.56135   0.00000   7.38042     6
  Ag   4.56135   0.00000  -7.38042     6
  Ag  -4.56135   0.00000   7.38042     6
  Ag  -4.56135   0.00000  -7.38042     6
  Ag   0.00000   7.38042   4.56135     6
  Ag   0.00000   7.38042  -4.56135     6
  Ag   0.00000  -7.38042   4.56135     6
  Ag   0.00000  -7.38042  -4.56135     6
  Ag   7.38042   1.52045   0.00000     8
  Ag   7.38042  -1.52045   0.00000     8
  Ag   6.44073   3.04090   2.46014     8
  Ag   5.50104   1.52045   4.92028     8
  Ag   6.44073  -3.04090   2.46014     8
  Ag   5.50104  -1.52045   4.92028     8
  Ag   6.44073   0.00000   2.46014     9
  Ag   6.44073   3.04090  -2.46014     8
  Ag   5.50104   1.52045  -4.92028     8
  Ag   6.44073  -3.04090  -2.46014     8
  Ag   5.50104  -1.52045  -4.92028     8
  Ag   6.44073   0.00000  -2.46014     9
  Ag   4.92028   5.50104   1.52045     8
  Ag   2.46014   6.44073   3.04090     8
  Ag   3.04090   2.46014   6.44073     8
  Ag   1.52045   4.92028   5.50104     8
  Ag   3.98059   3.98059   3.98059     9
  Ag   4.92028   5.50104  -1.52045     8
  Ag   2.46014   6.44073  -3.04090     8
  Ag   3.04090   2.46014  -6.44073     8
  Ag   1.52045   4.92028  -5.50104     8
  Ag   3.98059   3.98059  -3.98059     9
  Ag   0.00000   7.38042   1.52045     8
  Ag   0.00000   7.38042  -1.52045     8
  Ag   2.46014   6.44073   0.00000     9
  Ag   4.92028  -5.50104   1.52045     8
  Ag   2.46014  -6.44073   3.04090     8
  Ag   3.04090  -2.46014   6.44073     8
  Ag   1.52045  -4.92028   5.50104     8
  Ag   3.98059  -3.98059   3.98059     9
  Ag   4.92028  -5.50104  -1.52045     8
  Ag   2.46014  -6.44073  -3.04090     8
  Ag   3.04090  -2.46014  -6.44073     8
  Ag   1.52045  -4.92028  -5.50104     8
  Ag   3.98059  -3.98059  -3.98059     9
  Ag   0.00000  -7.38042   1.52045     8
  Ag   0.00000  -7.38042  -1.52045     8
  Ag   2.46014  -6.44073   0.00000     9
  Ag  -7.38042   1.52045   0.00000     8
  Ag  -7.38042  -1.52045   0.00000     8
  Ag  -6.44073   3.04090   2.46014     8
  Ag  -5.50104   1.52045   4.92028     8
  Ag  -6.44073  -3.04090   2.46014     8
  Ag  -5.50104  -1.52045   4.92028     8
  Ag  -6.44073   0.00000   2.46014     9
  Ag  -6.44073   3.04090  -2.46014     8
  Ag  -5.50104   1.52045  -4.92028     8
  Ag  -6.44073  -3.04090  -2.46014     8
  Ag  -5.50104  -1.52045  -4.92028     8
  Ag  -6.44073   0.00000  -2.46014     9
  Ag  -4.92028   5.50104   1.52045     8
  Ag  -2.46014   6.44073   3.04090     8
  Ag  -3.04090   2.46014   6.44073     8
  Ag  -1.52045   4.92028   5.50104     8
  Ag  -3.98059   3.98059   3.98059     9
  Ag  -4.92028   5.50104  -1.52045     8
  Ag  -2.46014   6.44073  -3.04090     8
  Ag  -3.04090   2.46014  -6.44073     8
  Ag  -1.52045   4.92028  -5.50104     8
  Ag  -3.98059   3.98059  -3.98059     9
  Ag  -2.46014   6.44073   0.00000     9
  Ag  -4.92028  -5.50104   1.52045     8
  Ag  -2.46014  -6.44073   3.04090     8
  Ag  -3.04090  -2.46014   6.44073     8
  Ag  -1.52045  -4.92028   5.50104     8
  Ag  -3.98059  -3.98059   3.98059     9
  Ag  -4.92028  -5.50104  -1.52045     8
  Ag  -2.46014  -6.44073  -3.04090     8
  Ag  -3.04090  -2.46014  -6.44073     8
  Ag  -1.52045  -4.92028  -5.50104     8
  Ag  -3.98059  -3.98059  -3.98059     9
  Ag  -2.46014  -6.44073   0.00000     9
  Ag   1.52045   0.00000   7.38042     8
  Ag  -1.52045   0.00000   7.38042     8
  Ag   0.00000   2.46014   6.44073     9
  Ag   0.00000  -2.46014   6.44073     9
  Ag   1.52045   0.00000  -7.38042     8
  Ag  -1.52045   0.00000  -7.38042     8
  Ag   0.00000   2.46014  -6.44073     9
  Ag   0.00000  -2.46014  -6.44073     9
