          38
Pt Pt Oliver DFT relaxation
Pt    11.941223549    9.267623189    2.248439352
Pt    11.944166135   12.120111077    2.256199254
Pt     9.113199083    9.222435789    2.239470594
Pt     9.057458440   12.070566108    2.244122967
Pt    13.210155876    7.879544593    4.124654009
Pt    13.435728535   10.586956913    4.014653665
Pt    13.140184908   13.258219448    4.278991995
Pt    10.519230005    7.520684871    3.863322649
Pt    10.472230853   10.522517743    4.110884014
Pt    10.448289926   13.449984561    4.070075807
Pt     7.812441997    7.800691178    4.077176862
Pt     7.499790868   10.501419672    3.951928042
Pt    14.412494977    9.218672102    6.101593763
Pt     7.755961015   13.182652360    4.230151797
Pt    14.380329646   11.870889990    6.192686630
Pt    11.839033073    6.551404411    5.989216014
Pt    11.781434308    9.176276005    6.062372775
Pt    11.757130700   11.797002641    6.148088868
Pt     9.195401810    6.516150587    5.967238625
Pt    11.743130246   14.422143666    6.231988880
Pt     9.168803223    9.140737350    6.039503341
Pt     9.129523687   11.758478618    6.122342816
Pt     9.091805777   14.388076427    6.201663295
Pt     6.539273855    9.113110442    6.030005408
Pt    13.151590959    7.802105881    7.978401624
Pt     6.503000543   11.762895031    6.111377972
Pt    13.420419306   10.474821175    8.283111782
Pt    13.070589277   13.128504732    8.183158961
Pt    10.486732448    7.421340876    8.155869995
Pt    10.445847863   10.419715173    8.014815792
Pt    10.409350347   13.386247400    8.334041047
Pt     7.810934124    7.730768068    7.926092682
Pt     7.459696827   10.395764971    8.226516658
Pt     7.749872105   13.062127691    8.114340309
Pt    11.799604848    9.032445512    9.869624990
Pt    11.751924964   11.725403826    9.980684368
Pt     9.102597459    9.002246099    9.835206354
Pt     9.063980202   11.700250001    9.944558012
